Version 4
SHEET 1 1544 680
WIRE -96 -144 -176 -144
WIRE -32 -144 -96 -144
WIRE 32 -144 -32 -144
WIRE -96 -128 -96 -144
WIRE -32 -128 -32 -144
WIRE -176 -112 -176 -144
WIRE 560 -112 544 -112
WIRE 656 -112 624 -112
WIRE 960 -80 816 -80
WIRE 1056 -80 960 -80
WIRE 1056 -64 1056 -80
WIRE -176 -48 -176 -80
WIRE -96 -48 -96 -64
WIRE -96 -48 -176 -48
WIRE -32 -48 -32 -64
WIRE -32 -48 -96 -48
WIRE -176 -32 -176 -48
WIRE 544 -32 544 -112
WIRE 544 -32 240 -32
WIRE 560 -32 544 -32
WIRE 656 -32 656 -112
WIRE 656 -32 640 -32
WIRE 688 -32 656 -32
WIRE 736 -32 688 -32
WIRE 688 -16 688 -32
WIRE 1056 -16 1056 -32
WIRE 32 0 32 -144
WIRE 80 0 32 0
WIRE 320 0 240 0
WIRE 496 0 320 0
WIRE 496 16 496 0
WIRE 80 32 -96 32
WIRE 288 32 240 32
WIRE -96 48 -96 32
WIRE 80 64 32 64
WIRE -96 96 -96 80
WIRE 80 96 -48 96
WIRE 272 96 240 96
WIRE 288 96 288 32
WIRE 496 96 496 80
WIRE 496 96 288 96
WIRE 688 96 688 64
WIRE 688 96 496 96
WIRE 816 96 816 16
WIRE 816 96 688 96
WIRE 960 96 816 96
WIRE 1040 96 960 96
WIRE -48 112 -48 96
WIRE 272 112 272 96
WIRE 320 112 320 64
WIRE 320 112 272 112
WIRE 816 112 816 96
WIRE 32 128 32 64
WIRE 80 128 32 128
WIRE 272 128 240 128
WIRE 960 128 960 96
WIRE -48 160 -48 144
WIRE 544 160 240 160
WIRE 560 160 544 160
WIRE 656 160 640 160
WIRE 688 160 656 160
WIRE 736 160 688 160
WIRE 32 176 32 128
WIRE 688 176 688 160
WIRE 1040 176 1040 160
WIRE 320 192 320 112
WIRE 368 192 320 192
WIRE 320 224 320 192
WIRE 544 240 544 160
WIRE 560 240 544 240
WIRE 656 240 656 160
WIRE 656 240 624 240
WIRE 816 256 816 208
WIRE 816 256 688 256
WIRE 960 256 960 208
WIRE 960 256 816 256
WIRE 1040 256 960 256
WIRE 272 272 272 128
WIRE 320 272 320 256
WIRE 368 272 368 256
WIRE 368 272 320 272
WIRE 960 288 960 256
WIRE 320 336 320 272
FLAG -176 -32 0
FLAG 320 336 0
FLAG 960 368 0
FLAG 1056 -16 0
FLAG 32 176 0
FLAG -48 160 0
FLAG -96 96 0
FLAG 272 272 0
FLAG 960 -16 0
SYMBOL MiniSyms4\\voltage- -176 -96 R0
WINDOW 123 0 0 Left 0
WINDOW 39 0 0 Left 0
SYMATTR InstName V1
SYMATTR Value 5
SYMBOL MiniSyms4\\voltage- 1056 -48 R0
WINDOW 123 0 0 Left 0
WINDOW 0 12 -18 Left 2
WINDOW 3 13 17 Left 2
SYMATTR InstName V3
SYMATTR Value 150
SYMATTR SpiceLine Rser=1
SYMBOL res 944 112 R0
SYMATTR InstName R6
SYMATTR Value 2k
SYMBOL res 944 272 R0
SYMATTR InstName R7
SYMATTR Value 10
SYMBOL MiniSyms4\\voltage- -48 128 R0
WINDOW 123 0 0 Left 0
WINDOW 39 0 0 Left 0
WINDOW 0 15 -1 Left 2
WINDOW 3 11 11 Invisible 0
SYMATTR InstName V4
SYMATTR Value PULSE(0 5 1m 1u 1u 2.5m 5m)
SYMBOL MiniSyms4\\voltage- -96 64 R0
WINDOW 123 0 0 Left 0
WINDOW 39 0 0 Left 0
WINDOW 0 15 -1 Left 2
WINDOW 3 11 11 Invisible 0
SYMATTR InstName V5
SYMATTR Value PULSE(0 5 4m 1u 1u 1.5m 5m)
SYMBOL cap 480 16 R0
SYMATTR InstName C1
SYMATTR Value 22µ
SYMBOL cap -112 -128 R0
SYMATTR InstName C2
SYMATTR Value 1µ
SYMATTR SpiceLine V=50 Irms=3.41 Rser=0.0133158 Lser=0 mfg="KEMET" pn="C1206C105K5RAC" type="X7R"
SYMBOL cap -48 -128 R0
SYMATTR InstName C4
SYMATTR Value 0.1µ
SYMATTR SpiceLine V=50 Irms=728m Rser=0.14361 Lser=0 mfg="KEMET" pn="C0603C104K5RAC" type="X7R"
SYMBOL cap 352 192 R0
SYMATTR InstName C5
SYMATTR Value 100n
SYMBOL EXTRA\\IRF\\GATEDRV\\IR2110 160 64 R0
WINDOW 0 58 -115 Bottom 2
WINDOW 3 -36 128 Center 2
SYMATTR InstName U2
SYMBOL diode 336 64 R180
WINDOW 0 -38 29 Left 2
WINDOW 3 24 0 Invisible 2
SYMATTR InstName D1
SYMBOL MiniSyms4\\voltage- 320 240 R0
WINDOW 123 0 0 Left 0
WINDOW 0 -36 -24 Left 2
WINDOW 3 -40 7 Left 2
SYMATTR InstName V2
SYMATTR Value 12
SYMATTR SpiceLine Rser=1
SYMBOL EXTRA\\IRF\\NMOSFET\\irf840 784 -32 R0
WINDOW 0 -3 -60 Left 0
WINDOW 3 63 3 Left 0
SYMATTR InstName U3
SYMBOL EXTRA\\IRF\\NMOSFET\\irf840 784 160 R0
SYMATTR InstName U1
SYMBOL res 656 -48 R90
WINDOW 0 0 56 VBottom 2
WINDOW 3 32 56 VTop 2
SYMATTR InstName R1
SYMATTR Value 47
SYMBOL res 656 144 R90
WINDOW 0 0 56 VBottom 2
WINDOW 3 32 56 VTop 2
SYMATTR InstName R2
SYMATTR Value 47
SYMBOL diode 624 -128 R90
WINDOW 0 0 32 VBottom 2
WINDOW 3 32 32 Invisible 2
SYMATTR InstName D2
SYMBOL diode 624 224 R90
WINDOW 0 65 30 VBottom 2
WINDOW 3 32 32 Invisible 2
SYMATTR InstName D3
SYMBOL cap 1024 96 R0
SYMATTR InstName C3
SYMATTR Value 100n
SYMBOL cap 944 -80 R0
SYMATTR InstName C6
SYMATTR Value 33µ
SYMBOL res 1024 160 R0
SYMATTR InstName R3
SYMATTR Value 5k
SYMBOL res 672 160 R0
SYMATTR InstName R4
SYMATTR Value 1k
TEXT -168 552 Left 2 !.tran 0 100m 0 startup
