Version 4
SHEET 1 1832 680
WIRE 592 -160 336 -160
WIRE 336 -128 336 -160
WIRE 1104 -80 1056 -80
WIRE 1296 -80 1184 -80
WIRE 1344 -80 1296 -80
WIRE 1488 -80 1408 -80
WIRE 1680 -80 1488 -80
WIRE 1056 -48 1056 -80
WIRE 1488 -48 1488 -80
WIRE 1680 -48 1680 -80
WIRE 336 -16 336 -96
WIRE 592 16 592 -160
WIRE 1056 16 1056 -16
WIRE 1296 64 1296 -80
WIRE 1488 64 1488 32
WIRE 224 80 144 80
WIRE 320 80 224 80
WIRE 432 80 320 80
WIRE 320 96 320 80
WIRE 912 112 752 112
WIRE 992 112 912 112
WIRE 1104 112 992 112
WIRE 1216 112 1184 112
WIRE 1600 112 1520 112
WIRE 992 128 992 112
WIRE 432 144 400 144
WIRE 912 144 912 112
WIRE 224 176 224 160
WIRE 320 176 320 160
WIRE 320 176 224 176
WIRE 400 176 400 144
WIRE 400 176 320 176
WIRE 32 208 0 208
WIRE 432 208 112 208
WIRE 816 240 752 240
WIRE 912 240 912 208
WIRE 912 240 816 240
WIRE 1104 240 912 240
WIRE 1296 240 1296 160
WIRE 1296 240 1184 240
WIRE -80 272 -128 272
WIRE 0 272 0 208
WIRE 0 272 -16 272
WIRE 432 272 0 272
WIRE 816 272 816 240
WIRE 1296 272 1296 240
WIRE 1488 272 1488 160
WIRE -128 352 -128 272
WIRE 592 368 592 336
WIRE 816 368 816 336
WIRE 816 368 592 368
WIRE 992 368 992 208
WIRE 592 384 592 368
WIRE 1296 384 1296 352
WIRE 1488 384 1488 352
WIRE 1680 384 1680 16
WIRE 144 448 144 80
WIRE 1600 448 1600 112
WIRE 1600 448 144 448
FLAG 336 -16 0
FLAG -128 352 0
FLAG 592 384 0
FLAG 992 368 0
FLAG 1296 384 0
FLAG 1488 384 0
FLAG 1680 384 0
FLAG 1056 16 0
SYMBOL EXTRA\\UC\\UC384xB\\UC3843B 592 176 R0
SYMATTR InstName U2
SYMBOL ind 1088 -64 R270
WINDOW 0 32 56 VTop 2
WINDOW 3 5 56 VBottom 2
SYMATTR InstName L1
SYMATTR Value 100µ
SYMATTR SpiceLine Ipk=3 Rser=0.18 Rpar=60934 Cpar=7.935p mfg="Bourns, Inc." pn="SDR1307-101KL"
SYMBOL res 16 224 R270
WINDOW 0 32 56 VTop 2
WINDOW 3 0 56 VBottom 2
SYMATTR InstName R1
SYMATTR Value 7.5K
SYMATTR SpiceLine tol=1 pwr=0.125
SYMBOL res 208 64 R0
SYMATTR InstName R2
SYMATTR Value 150
SYMATTR SpiceLine tol=1 pwr=0.125
SYMBOL cap -16 256 R90
WINDOW 0 0 32 VBottom 2
WINDOW 3 32 32 VTop 2
SYMATTR InstName C1
SYMATTR Value 0.0022µ
SYMATTR SpiceLine V=50 Irms=0 Rser=0 Lser=0 mfg="Murata" pn="GCM155R71H222JA37" type="X7R"
SYMBOL schottky 928 208 R180
WINDOW 0 24 64 Left 2
WINDOW 3 24 0 Left 2
SYMATTR InstName D2
SYMATTR Value MBR0520L
SYMBOL diode 1344 -64 R270
WINDOW 0 32 32 VTop 2
WINDOW 3 0 32 VBottom 2
SYMATTR InstName D3
SYMATTR Value 1SR154-600
SYMBOL EXTRA\\IRF\\NMOSFET\\irf840 1264 112 R0
SYMATTR InstName U1
SYMBOL EXTRA\\Misc\\pot 1488 112 R180
SYMATTR InstName U3
SYMATTR Value R=20k
SYMBOL MiniSyms4\\voltage- 336 -112 R0
WINDOW 123 0 0 Left 0
SYMATTR InstName V1
SYMATTR Value 12
SYMBOL cap 304 96 R0
SYMATTR InstName C2
SYMATTR Value 100p
SYMATTR SpiceLine V=100 Irms=0 Rser=0 Lser=0 mfg="Murata" pn="GCM1885C2A101JA16" type="C0G"
SYMBOL res 1200 96 R90
WINDOW 0 0 56 VBottom 2
WINDOW 3 32 56 VTop 2
SYMATTR InstName R3
SYMATTR Value 10
SYMATTR SpiceLine tol=1 pwr=0,125
SYMBOL res 976 112 R0
SYMATTR InstName R4
SYMATTR Value 1k
SYMATTR SpiceLine tol=1 pwr=0.125
SYMBOL cap 800 272 R0
SYMATTR InstName C3
SYMATTR Value 150p
SYMATTR SpiceLine V=50 Irms=0 Rser=0 Lser=0 mfg="Murata" pn="GRM0335C1H151JA01" type="C0G"
SYMBOL res 1200 224 R90
WINDOW 0 0 56 VBottom 2
WINDOW 3 32 56 VTop 2
SYMATTR InstName R5
SYMATTR Value 510
SYMATTR SpiceLine tol=1 pwr=0.125
SYMBOL res 1280 256 R0
SYMATTR InstName R6
SYMATTR Value 1
SYMATTR SpiceLine tol=5 pwr=2
SYMBOL res 1472 -64 R0
SYMATTR InstName R7
SYMATTR Value 1.2Meg
SYMATTR SpiceLine tol=1 pwr=0.125
SYMBOL res 1472 256 R0
SYMATTR InstName R8
SYMATTR Value 10k
SYMATTR SpiceLine tol=1 pwr=0.125
SYMBOL polcap 1664 -48 R0
WINDOW 3 24 56 Left 2
SYMATTR Value 33µ
SYMATTR InstName C4
SYMATTR Description Capacitor
SYMATTR Type cap
SYMATTR SpiceLine V=450 Irms=322m Rser=0.019 Lser=0
SYMBOL MiniSyms4\\voltage- 1056 -32 R0
WINDOW 123 0 0 Left 0
WINDOW 39 0 0 Left 0
SYMATTR InstName V2
SYMATTR Value 12
TEXT -148 454 Left 2 !.tran 0 1.5m 0 steady startup
